# generated using pymatgen
data_Li2FeSiO4
_symmetry_space_group_name_H-M   P2_1
_cell_length_a   5.13230200
_cell_length_b   11.03734200
_cell_length_c   6.23237968
_cell_angle_alpha   90.00000000
_cell_angle_beta   91.30707992
_cell_angle_gamma   90.00000000
_symmetry_Int_Tables_number   4
_chemical_formula_structural   Li2FeSiO4
_chemical_formula_sum   'Li8 Fe4 Si4 O16'
_cell_volume   352.95357659
_cell_formula_units_Z   4
loop_
 _symmetry_equiv_pos_site_id
 _symmetry_equiv_pos_as_xyz
  1  'x, y, z'
  2  '-x, y+1/2, -z'
loop_
 _atom_type_symbol
 _atom_type_oxidation_number
  Li+  1.0
  Fe2+  2.0
  Si4+  4.0
  O2-  -2.0
loop_
 _atom_site_type_symbol
 _atom_site_label
 _atom_site_symmetry_multiplicity
 _atom_site_fract_x
 _atom_site_fract_y
 _atom_site_fract_z
 _atom_site_occupancy
  Li+  Li0  2  0.04815700  0.57315700  0.01097200  1
  Li+  Li1  2  0.05788800  0.34331000  0.25172100  1
  Li+  Li2  2  0.44168500  0.66059300  0.25679200  1
  Li+  Li3  2  0.45369500  0.43010700  0.49846700  1
  Fe2+  Fe4  2  0.05134400  0.33326200  0.75308800  1
  Fe2+  Fe5  2  0.44894700  0.66915400  0.75642900  1
  Si4+  Si6  2  0.05607100  0.09085500  0.49330800  1
  Si4+  Si7  2  0.44270600  0.91261200  0.99709000  1
  O2-  O8  2  0.04045100  0.66717700  0.72342400  1
  O2-  O9  2  0.04540100  0.65944900  0.28680000  1
  O2-  O10  2  0.06176900  0.45215500  0.50636900  1
  O2-  O11  2  0.11996700  0.91582800  0.99524100  1
  O2-  O12  2  0.37863900  0.08774500  0.49692000  1
  O2-  O13  2  0.43986300  0.55129100  0.00276100  1
  O2-  O14  2  0.45570600  0.34422100  0.22287500  1
  O2-  O15  2  0.46091000  0.33587600  0.78558300  1
